NOVA AURORA,CRUZEIRO DO SUL,PATO BRANCO,QUINTA DO SOL,GENERAL CARNEIRO,JAGUAPITA,NOVA SANTA BARBARA,ASSAI,IPORA,LONDRINA,NOVA SANTA ROSA,ALTO PARANA,CAMBE,MARQUINHO,NOVA OLIMPIA,LUIZIANA,GODOY MOREIRA,DOIS VIZINHOS,SANTO ANTONIO DO CAIUA,NOVA PRATA DO IGUACU,PLANALTO,DOURADINA,IRACEMA DO OESTE,GUARATUBA,TAPEJARA,NOVO ITACOLOMI,NOVA TEBAS,LUNARDELLI,JAPURA,QUATIGUA,SAO JOSE DOS PINHAIS,BANDEIRANTES,SAO MANOEL DO PARANA,TERRA RICA,ALTO PARAISO,DOUTOR ULYSSES,HONORIO SERPA,VERE,ITAMBE,SANTA LUCIA,ANDIRA,ANGULO,SANTA IZABEL DO OESTE,MANDAGUARI,VIRMOND,CAMPO LARGO,PEROLA D'OESTE,SAO SEBASTIAO DA AMOREIRA,NOVA CANTU,CRUZ MACHADO,PRANCHITA,PRADO FERREIRA,CAMPO MAGRO,AGUDOS DO SUL,IRATI,MARUMBI,SANTA FE,ALTO PIQUIRI,CIANORTE,RIO BOM,ORTIGUEIRA,CRUZMALTINA,DOUTOR CAMARGO,SAO JERONIMO DA SERRA,RIO BRANCO DO IVAI,PAULA FREITAS,GOIOERE,JURANDA,RIO BONITO DO IGUACU,ARAPOTI,INAJA,BITURUNA,GOIOXIM,MIRASELVA,MARIA HELENA,CARLOPOLIS,PONTA GROSSA,CONGONHINHAS,IBAITI,TOMAZINA,TRES BARRAS DO PARANA,FORMOSA DO OESTE,PONTAL DO PARANA,LIDIANOPOLIS,IBEMA,LEOPOLIS,ARAPUA,CAFEARA,MISSAL,LINDOESTE,CAFELANDIA,SAO JORGE D'OESTE,TUNAS DO PARANA,GUARANIACU,SERTANOPOLIS,UNIFLOR,CAFEZAL DO SUL,RESERVA,JANDAIA DO SUL,ASTORGA,RESERVA DO IGUACU,PRESIDENTE CASTELO BRANCO,SANTA HELENA,RIO BRANCO DO SUL,PALMITAL,TEIXEIRA SOARES,FLORAI,FLOR DA SERRA DO SUL,ALMIRANTE TAMANDARE,MARINGA,CERRO AZUL,NOVA ALIANCA DO IVAI,CORONEL VIVIDA,SAO JOAO,ALTAMIRA DO PARANA,TUNEIRAS DO OESTE,PARANAPOEMA,FOZ DO IGUACU,JABOTI,ARARUNA,CRUZEIRO DO IGUACU,INDIANOPOLIS,LOANDA,CALIFORNIA,CORUMBATAI DO SUL,SANTA TEREZA DO OESTE,NOVA FATIMA,CURIUVA,NOVA LARANJEIRAS,MARIALVA,FRANCISCO ALVES,SANTANA DO ITARARE,CASCAVEL,PITANGA,GUARAPUAVA,TUPASSI,SIQUEIRA CAMPOS,TURVO,SANTA TEREZINHA DE ITAIPU,RIBEIRAO CLARO,JANIOPOLIS,ATALAIA,PRIMEIRO DE MAIO,SAO JORGE DO IVAI,SULINA,PALOTINA,SAO JORGE DO PATROCINIO,TELEMACO BORBA,FLORESTA,PITANGUEIRAS,URAI,TAMARANA,PORTO AMAZONAS,MAMBORE,CAMPINA GRANDE DO SUL,NOVA AMERICA DA COLINA,CRUZEIRO DO OESTE,SAO JOAO DO CAIUA,PORTO BARREIRO,JACAREZINHO,CAMPO BONITO,ARAUCARIA,ABATIA,IPIRANGA,MARIOPOLIS,SANTA CECILIA DO PAVAO,CEU AZUL,MARIPA,JATAIZINHO,NOVA LONDRINA,DIAMANTE DO NORTE,SAO PEDRO DO IVAI,SANTO INACIO,PARANAVAI,FRANCISCO BELTRAO,APUCARANA,IVAI,JESUITAS,IMBITUVA,PATO BRAGADO,BARRA DO JACARE,SALGADO FILHO,PLANALTINA DO PARANA,CAPANEMA,MANOEL RIBAS,TIJUCAS DO SUL,GUARAQUECABA,FLORESTOPOLIS,PARAISO DO NORTE,BOM SUCESSO DO SUL,BELA VISTA DA CAROBA,BOM SUCESSO,LAPA,LARANJAL,COLOMBO,MEDIANEIRA,SAO JOAO DO IVAI,SENGES,GUAPOREMA,GUAIRACA,PEROLA,UMUARAMA,REBOUCAS,PORTO RICO,SANTA CRUZ DE MONTE CASTELO,RIO AZUL,SERRANOPOLIS DO IGUACU,JOAQUIM TAVORA,MERCEDES,FAXINAL,PALMAS,GUAMIRANGA,FAZENDA RIO GRANDE,ADRIANOPOLIS,CATANDUVAS,MARILENA,BELA VISTA DO PARAISO,SAO PEDRO DO PARANA,CORBELIA,MUNHOZ DE MELO,SAO CARLOS DO IVAI,TOLEDO,FLORIDA,PARANACITY,ARAPONGAS,IVAIPORA,INACIO MARTINS,IVATE,BORRAZOPOLIS,LARANJEIRAS DO SUL,MARECHAL CANDIDO RONDON,SALTO DO ITARARE,CAPITAO LEONIDAS MARQUES,PIRAI DO SUL,SERTANEJA,GUARACI,BRASILANDIA DO SUL,CARAMBEI,RENASCENCA,JAGUARIAIVA,BRAGANEY,PORTO VITORIA,ASSIS CHATEAUBRIAND,COLORADO,MIRADOR,RONCADOR,SAO JOAO DO TRIUNFO,SANTA MARIA DO OESTE,FENIX,PALMEIRA,UNIAO DA VITORIA,FERNANDES PINHEIRO,QUITANDINHA,JUNDIAI DO SUL,SANTO ANTONIO DO PARAISO,CORNELIO PROCOPIO,NOSSA SENHORA DAS GRACAS,FIGUEIRA,IVATUBA,RAMILANDIA,SALTO DO LONTRA,LUPIONOPOLIS,CENTENARIO DO SUL,MARILUZ,CORONEL DOMINGOS SOARES,CAMBIRA,JARDIM ALEGRE,SAO MATEUS DO SUL,PARANAGUA,TAPIRA,VITORINO,ITAPEJARA D'OESTE,ANTONINA,QUATRO BARRAS,SANTA MARIANA,BARBOSA FERRAZ,RONDON,MANDIRITUBA,TERRA ROXA,PIRAQUARA,CAMPO MOURAO,QUATRO PONTES,BOA ESPERANCA DO IGUACU,ITAPERUCU,JUSSARA,ROSARIO DO IVAI,BOA ESPERANCA,MANFRINOPOLIS,BOA VISTA DA APARECIDA,MATELANDIA,SANTA MONICA,CIDADE GAUCHA,SAO TOME,BOA VENTURA DE SAO ROQUE,PIEN,PINHAIS,NOVA ESPERANCA,CURITIBA,PAULO FRONTIN,RANCHO ALEGRE,GRANDES RIOS,PORECATU,RANCHO ALEGRE D'OESTE,SANTA AMELIA,IRETAMA,MALLET,ALVORADA DO SUL,CAMPINA DA LAGOA,JARDIM OLINDA,NOVA ESPERANCA DO SUDOESTE,OURIZONA,ENEAS MARQUES,SANTO ANTONIO DO SUDOESTE,OURO VERDE DO OESTE,IBIPORA,QUEDAS DO IGUACU,CAMPINA DO SIMAO,SAO MIGUEL DO IGUACU,BARRACAO,MOREIRA SALES,SAO PEDRO DO IGUACU,TIBAGI,CONSELHEIRO MAIRINCK,XAMBRE,ITAUNA DO SUL,ANTONIO OLINTO,IGUARACU,KALORE,BOCAIUVA DO SUL,CANDOI,SABAUDIA,IMBAU,MANGUEIRINHA,CANDIDO DE ABREU,SAPOPEMA,PINHALAO,IGUATU,GUAPIRAMA,REALEZA,CANTAGALO,SANTA INES,BOM JESUS DO SUL,ITAGUAJE,SARANDI,MATINHOS,RIO NEGRO,AMAPORA,CLEVELANDIA,MAUA DA SERRA,PAICANDU,ENGENHEIRO BELTRAO,PINHAL DE SAO BENTO,MATO RICO,UBIRATA,PEABIRU,ITAIPULANDIA,GUAIRA,ENTRE RIOS DO OESTE,SAUDADE DO IGUACU,QUERENCIA DO NORTE,ESPIGAO ALTO DO IGUACU,ALTONIA,ESPERANCA NOVA,PEROBAL,SANTO ANTONIO DA PLATINA,MORRETES,MARILANDIA DO SUL,CONTENDA,FAROL,CASTRO,ICARAIMA,LOBATO,ARIRANHA DO IVAI,CAMBARA,DIAMANTE DO SUL,SAO JOSE DA BOA VISTA,FOZ DO JORDAO,DIAMANTE D'OESTE,TAMBOARA,ITAMBARACA,WENCESLAU BRAZ,AMPERE,RIBEIRAO DO PINHAL,JAPIRA,PRUDENTOPOLIS,SANTA ISABEL DO IVAI,BALSA NOVA,ROLANDIA,MANDAGUACU,SAO JOSE DAS PALMEIRAS,TERRA BOA,CAMPO DO TENENTE,VERA CRUZ DO OESTE,PINHAO,VENTANIA,QUARTO CENTENARIO,ANAHY,MARMELEIRO,CHOPINZINHO